/*--------------------------------*- C++ -*----------------------------------*\
| =========                 |                                                 |
| \\      /  F ield         | OpenFOAM: The Open Source CFD Toolbox           |
|  \\    /   O peration     | Version:  v2012                                 |
|   \\  /    A nd           | Website:  www.openfoam.com                      |
|    \\/     M anipulation  |                                                 |
\*---------------------------------------------------------------------------*/
FoamFile
{
    version     2.0;
    format      ascii;
    class       polyBoundaryMesh;
    location    "constant/polyMesh";
    object      boundary;
}
// * * * * * * * * * * * * * * * * * * * * * * * * * * * * * * * * * * * * * //

5
(
    inlet
    {
        type            patch;
        nFaces          20;
        startFace       3100;
    }
    outlet
    {
        type            patch;
        nFaces          20;
        startFace       3120;
    }
    upperWall
    {
        type            wall;
        inGroups        1(wall);
        nFaces          80;
        startFace       3140;
    }
    lowerWall
    {
        type            wall;
        inGroups        1(wall);
        nFaces          80;
        startFace       3220;
    }
    frontAndBack
    {
        type            empty;
        inGroups        1(empty);
        nFaces          3200;
        startFace       3300;
    }
)

// ************************************************************************* //
