/*--------------------------------*- C++ -*----------------------------------*\
| =========                 |                                                 |
| \\      /  F ield         | OpenFOAM: The Open Source CFD Toolbox           |
|  \\    /   O peration     | Version:  2.2.2                                 |
|   \\  /    A nd           | Web:      www.OpenFOAM.org                      |
|    \\/     M anipulation  |                                                 |
\*---------------------------------------------------------------------------*/
FoamFile
{
    version     2.0;
    format      ascii;
    class       dictionary;
    object      blockMeshDict;
}
// * * * * * * * * * * * * * * * * * * * * * * * * * * * * * * * * * * * * * //

convertToMeters 0.01;

vertices
(
// First level
    (0 0 0)   //0
    (45 0 0)  //1
    (55 0 0)  //2
    (150 0 0)  //3
    (150 45 0)  //4
    (55 45 0)  //5
    (45 45 0)  //6
    (0 45 0)  //7
    (0 55 0)  //8
    (45 55 0)  //9
    (55 55 0)  //10
    (150 55 0)  //11
    (150 100 0)  //12
    (55 100 0)  //13
    (45 100 0)  //14
    (0 100 0)  //15

// Second level
    (0 0 35)   //16
    (45 0 35)  //17
    (55 0 35)  //18
    (150 0 35)  //19
    (150 45 35)  //20
    (55 45 35)  //21
    (45 45 35)  //22
    (0 45 35)  //23
    (0 55 35)  //24
    (45 55 35)  //25
    (55 55 35)  //26
    (150 55 35)  //27
    (150 100 35)  //28
    (55 100 35)  //29
    (45 100 35)  //30
    (0 100 35)  //31

// Third level
    (0 0 40)   //32
    (45 0 40)  //33
    (55 0 40)  //34
    (150 0 40)  //35
    (150 45 40)  //36
    (55 45 40)  //37
    (45 45 40)  //38
    (0 45 40)  //39
    (0 55 40)  //40
    (45 55 40)  //41
    (55 55 40)  //42
    (150 55 40)  //43
    (150 100 40)  //44
    (55 100 40)  //45
    (45 100 40)  //46
    (0 100 40)  //47

// Forth level
    (0 0 75)   //48
    (45 0 75)  //49
    (55 0 75)  //50
    (150 0 75)  //51
    (150 45 75)  //52
    (55 45 75)  //53
    (45 45 75)  //54
    (0 45 75)  //55
    (0 55 75)  //56
    (45 55 75)  //57
    (55 55 75)  //58
    (150 55 75)  //59
    (150 100 75)  //60
    (55 100 75)  //61
    (45 100 75)  //62
    (0 100 75)  //63
);



blocks
(
    // Bottom blocks
    hex (0 1 6 7 16 17 22 23) (26 25 23) simpleGrading (0.16 0.154 0.2)     //0
    hex (1 2 5 6 17 18 21 22) (15 25 23) simpleGrading (1 0.154 0.2)        //1
    hex (2 3 4 5 18 19 20 21) (34 25 23) simpleGrading (11.4 0.154 0.2)       //2
    
    hex (5 4 11 10 21 20 27 26) (34 25 23) simpleGrading (11.4 0.154 0.2)     //3
    hex (6 5 10 9 22 21 26 25) (15 25 23) simpleGrading (1 0.154 0.2)       //4
    hex (6 7 8 9 22 23 24 25) (26 25 23) simpleGrading (0.16 0.154 0.2)          //5

    hex (8 9 14 15 24 25 30 31) (26 25 23) simpleGrading (0.16 0.154 0.2)           //6
    hex (9 10 13 14 25 26 29 30) (15 25 23) simpleGrading (1 0.154 0.2)       //7
    hex (10 11 12 13 26 27 28 29) (34 25 23) simpleGrading (11.4 0.154 0.2)      //8
    
// Middle blocks
    hex (16 17 22 23 32 33 38 39) (26 25 23) simpleGrading (0.16 0.154 0.2)     //9
    hex (17 18 21 22 33 34 37 38) (15 25 23) simpleGrading (1 0.154 0.2)        //10
    hex (18 19 20 21 34 35 36 37) (34 25 23) simpleGrading (11.4 0.154 0.2)        //11
    
    hex (20 21 26 27 36 37 42 43) (34 25 23) simpleGrading (11.4 0.154 0.2)     //12
    hex (21 22 25 26 37 38 41 42) (15 25 23) simpleGrading (1 0.154 0.2)        //13
    hex (22 23 24 25 38 39 40 41) (26 25 23) simpleGrading (0.16 0.154 0.2)           //14

    hex (24 25 30 31 40 41 46 47) (26 25 23) simpleGrading (0.16 0.154 0.2)          //15
    hex (25 26 29 30 41 42 45 46) (15 25 23) simpleGrading (1 0.154 0.2)        //16
    hex (26 27 28 29 42 43 44 45) (34 25 23) simpleGrading (11.4 0.154 0.2)      //17
    
// Top blocks
    hex (32 33 38 39 48 49 54 55) (26 25 23) simpleGrading (0.16 0.154 0.2)   //18
    hex (33 34 37 38 49 50 53 54) (15 25 23) simpleGrading (1 0.154 0.2)        //19
    hex (34 35 36 37 50 51 52 53) (34 25 23) simpleGrading (11.4 0.154 0.2)        //20
    
    hex (36 37 42 43 52 53 58 59) (34 25 23) simpleGrading (11.4 0.154 0.2)      //21
    hex (37 38 41 42 53 54 57 58) (15 25 23) simpleGrading (1 0.154 0.2)        //22
    hex (38 39 40 41 54 55 56 57) (26 25 23) simpleGrading (0.16 0.154 0.2)           //23

    hex (40 41 46 47 56 57 62 63) (26 25 23) simpleGrading (0.16 0.154 0.2)           //24
    hex (41 42 45 46 57 58 61 62) (15 25 23) simpleGrading (1 0.154 0.2)        //25
    hex (42 43 44 45 58 59 60 61) (34 25 23) simpleGrading (11.4 0.154 0.2)      //26
    
);


edges
(
);


patches
(
    /*patch inlet
    (
        (0 7 23 16)
        (7 8 24 23)
        (8 15 31 24)

        (16 23 39 32)
        (23 24 40 39)
        (24 31 47 40)

        (32 39 55 48)
        (39 40 56 55)
        (40 47 63 56)
        
    )
    patch outlet
    (
        (3 4 20 19)
        (4 11 27 20)
        (11 12 28 27)

        (19 20 36 35)
        (20 27 43 36)
        (27 28 44 43)

        (35 36 52 51)
        (36 43 59 52) 
        (43 44 60 59)
        
    )
    patch back
    (
        (15 14 30 31)
        (31 30 46 47)
        (47 46 62 63)

        (14 13 29 30)
        (30 29 45 46)
        (46 45 61 62)

        (13 12 28 29)
        (29 28 44 45)
        (45 44 60 61)

     )

    patch front
    (
        (0 1 17 16)
        (16 17 33 32)
        (32 33 49 48)

        (1 2 18 17)
        (17 18 34 33)
        (33 34 50 49)

        (2 3 19 18)
        (18 19 35 34)
        (34 35 51 50)
        
    )

    patch top
    (
        (48 49 54 55)
        (49 50 53 54)
        (50 51 52 53)

        (52 53 58 59)
        (53 54 57 58)
        (54 55 56 57)

        (56 57 62 63)
        (57 58 61 62)
        (58 59 60 61)
     )
    patch bottom
    (
        (0 1 6 7)
        (1 2 5 6)
        (2 3 4 5)

        (4 5 10 11)
        (5 6 9 10)
        (6 7 8 9)

        (8 9 14 15)
        (9 10 13 14)
        (10 11 12 13)

     )
  
    
    wall cylinder //block
    (
    
       //(22 25 41 38)
       //(21 26 42 37)

       //(38 37 42 41)
       //(22 21 26 25)

       //(38 37 21 22)
       //(41 42 26 25)

       //(6 5 21 22)
       
       (22 21 37 38)
       (38 37 53 54)

       (9 10 26 25)
       (25 26 42 41)
       (41 42 58 57)

       (22 25 41 38)
       (21 26 42 37)

       (38 37 42 41)
       (22 21 26 25)

       (38 37 21 22)
       (41 42 26 25)

     )*/

 
);

mergePatchPairs
(
);

// ************************************************************************* //
